
***************************************************************												
*	Infineon	Technologies	AG									
*	GUMMEL-POON	MODEL	IN	SPICE	2G6	SYNTAX				
*	VALID	UP	TO	6	GHZ							
*	>>>	BFR183	<<<								
*	(C)	2013	Infineon	Technologies	AG							
*	Version	3.0	September	2013							
***************************************************************			
*.OPTION TNOM=25, GMIN= 1.00e-12
*BFR183 11 22 33
.SUBCKT BFR183 11 22 33 

CBEPAR 2 3 4.502E-013
CBCPAR 2 1 1.381E-013
CCEPAR 1 3 1.781E-013
LE    33 30 6.492E-010
LB    22 20 7.342E-010
LC    11 1  6.908E-010
CBEPCK 20 30  6.1E-014
CBCPCK 20 1  1.01E-013
CCEPCK 1 30  1.75E-013
LBI   20 2 5.308E-010
LEI   30 3 5.31E-010

Q1 1 2 3 M_BFR183

.MODEL 	M_BFR183	NPN(										
+	IS	=	4.732E-016									
+	BF	=	127.3									
+	NF	=	1.013									
+	VAF	=	68.1									
+	IKF	=	0.2352									
+	ISE	=	2.382E-015									
+	NE	=	1.692									
+	BR	=	9		
+	NR	=	1		
+	VAR	=	3.159	
+	IKR	=	0.075		
+	ISC	=	8E-015		
+	NC	=	2		
+	RB	=	2.70569		
+	IRB	=	0		
+	RBM	=	1.06067	
+	RE	=	0.1258		
+	RC	=	0.2288	
+	XTB	=	1.303		
+	EG	=	1.09		
+	XTI	=	6.548		
+	CJE	=	9.259E-013		
+	VJE	=	1.531		
+	MJE	=	0.7274		
+	TF	=	1.58943E-011		
+	XTF	=	0.432106		
+	VTF	=	3.94985		
+	ITF	=	0.278642		
+	PTF	=	0.0765545		
+	CJC	=	3.64E-013		
+	VJC	=	0.5776		
+	MJC	=	0.3076		
+	XCJC	=	1		
+	TR	=	1.79605E-008
+	CJS	=	0		
+	MJS	=	1
+         VJS       =         1 		
+	FC	=	0.9774		
+	KF	=	8.931E-017		
+	AF	=	1.512)
***************************************************************					
					

.ENDS BFR183
